<?xml version="1.0" encoding="ISO-8859-1"?>
<febio_spec version="4.0">
	<Module type="solid"/>
	<Control>
		<analysis>STATIC</analysis>
		<time_steps>10</time_steps>
		<step_size>0.1</step_size>
		<plot_zero_state>0</plot_zero_state>
		<plot_range>0,-1</plot_range>
		<plot_level>PLOT_MAJOR_ITRS</plot_level>
		<output_level>OUTPUT_MAJOR_ITRS</output_level>
		<plot_stride>1</plot_stride>
		<output_stride>1</output_stride>
		<adaptor_re_solve>1</adaptor_re_solve>
		<time_stepper type="default">
			<max_retries>5</max_retries>
			<opt_iter>11</opt_iter>
			<dtmin>0</dtmin>
			<dtmax>0.1</dtmax>
			<aggressiveness>0</aggressiveness>
			<cutback>0.5</cutback>
			<dtforce>0</dtforce>
		</time_stepper>
		<solver type="solid">
			<symmetric_stiffness>preferred</symmetric_stiffness>
			<equation_scheme>staggered</equation_scheme>
			<equation_order>default</equation_order>
			<optimize_bw>0</optimize_bw>
			<lstol>0.9</lstol>
			<lsmin>0.01</lsmin>
			<lsiter>5</lsiter>
			<ls_check_jacobians>0</ls_check_jacobians>
			<max_refs>15</max_refs>
			<check_zero_diagonal>0</check_zero_diagonal>
			<zero_diagonal_tol>0</zero_diagonal_tol>
			<force_partition>0</force_partition>
			<reform_each_time_step>1</reform_each_time_step>
			<reform_augment>0</reform_augment>
			<diverge_reform>1</diverge_reform>
			<min_residual>1e-20</min_residual>
			<max_residual>0</max_residual>
			<dtol>0.001</dtol>
			<etol>0.01</etol>
			<rtol>0</rtol>
			<rhoi>-2</rhoi>
			<alpha>1</alpha>
			<beta>0.25</beta>
			<gamma>0.5</gamma>
			<logSolve>0</logSolve>
			<arc_length>0</arc_length>
			<arc_length_scale>0</arc_length_scale>
			<qn_method type="BFGS">
				<max_ups>10</max_ups>
				<max_buffer_size>0</max_buffer_size>
				<cycle_buffer>1</cycle_buffer>
				<cmax>100000</cmax>
			</qn_method>
		</solver>
	</Control>
	<Material>
		<material id="1" name="Material1" type="neo-Hookean">
			<density>1</density>
			<E>100</E>
			<v>0</v>
		</material>
		<material id="2" name="Material2" type="solid mixture">
			<density>1</density>
			<solid type="neo-Hookean">
				<E>100</E>
				<v>0</v>
			</solid>
			<solid type="neo-Hookean">
				<E type="map">E_map</E>
				<v>0</v>
			</solid>
		</material>
	</Material>
	<Mesh>
		<Nodes name="Object01">
			<node id="1">-1,-0.5,0</node>
			<node id="2">-1,-0.5,0.2</node>
			<node id="3">-1,-0.4,0</node>
			<node id="4">-1,-0.4,0.2</node>
			<node id="5">-1,-0.3,0</node>
			<node id="6">-1,-0.3,0.2</node>
			<node id="7">-1,-0.2,0</node>
			<node id="8">-1,-0.2,0.2</node>
			<node id="9">-1,-0.1,0</node>
			<node id="10">-1,-0.1,0.2</node>
			<node id="11">-1,-2.7755576e-17,0</node>
			<node id="12">-1,-2.7755576e-17,0.2</node>
			<node id="13">-1,0.1,0</node>
			<node id="14">-1,0.1,0.2</node>
			<node id="15">-1,0.2,0</node>
			<node id="16">-1,0.2,0.2</node>
			<node id="17">-1,0.3,0</node>
			<node id="18">-1,0.3,0.2</node>
			<node id="19">-1,0.4,0</node>
			<node id="20">-1,0.4,0.2</node>
<!-- ... 442 like lines cut -->
		</Nodes>
		<Elements type="hex8" name="Part1">
			<elem id="1">1,23,25,3,2,24,26,4</elem>
			<elem id="2">3,25,27,5,4,26,28,6</elem>
			<elem id="3">5,27,29,7,6,28,30,8</elem>
			<elem id="4">7,29,31,9,8,30,32,10</elem>
			<elem id="5">9,31,33,11,10,32,34,12</elem>
			<elem id="6">11,33,35,13,12,34,36,14</elem>
			<elem id="7">13,35,37,15,14,36,38,16</elem>
			<elem id="8">15,37,39,17,16,38,40,18</elem>
			<elem id="9">17,39,41,19,18,40,42,20</elem>
			<elem id="10">19,41,43,21,20,42,44,22</elem>
			<elem id="11">23,45,47,25,24,46,48,26</elem>
			<elem id="12">25,47,49,27,26,48,50,28</elem>
			<elem id="13">27,49,51,29,28,50,52,30</elem>
			<elem id="14">29,51,53,31,30,52,54,32</elem>
			<elem id="15">31,53,55,33,32,54,56,34</elem>
			<elem id="16">33,55,57,35,34,56,58,36</elem>
			<elem id="17">35,57,59,37,36,58,60,38</elem>
			<elem id="18">37,59,61,39,38,60,62,40</elem>
			<elem id="19">39,61,63,41,40,62,64,42</elem>
			<elem id="20">41,63,65,43,42,64,66,44</elem>
<!-- ... 30 like lines cut -->
		</Elements>
		<Elements type="hex8" name="Part2">
			<elem id="51">111,133,135,113,112,134,136,114</elem>
			<elem id="52">113,135,137,115,114,136,138,116</elem>
			<elem id="53">115,137,139,117,116,138,140,118</elem>
			<elem id="54">117,139,141,119,118,140,142,120</elem>
			<elem id="55">119,141,143,121,120,142,144,122</elem>
			<elem id="56">121,143,145,123,122,144,146,124</elem>
			<elem id="57">123,145,147,125,124,146,148,126</elem>
			<elem id="58">125,147,149,127,126,148,150,128</elem>
			<elem id="59">127,149,151,129,128,150,152,130</elem>
			<elem id="60">129,151,153,131,130,152,154,132</elem>
			<elem id="61">133,155,157,135,134,156,158,136</elem>
			<elem id="62">135,157,159,137,136,158,160,138</elem>
			<elem id="63">137,159,161,139,138,160,162,140</elem>
			<elem id="64">139,161,163,141,140,162,164,142</elem>
			<elem id="65">141,163,165,143,142,164,166,144</elem>
			<elem id="66">143,165,167,145,144,166,168,146</elem>
			<elem id="67">145,167,169,147,146,168,170,148</elem>
			<elem id="68">147,169,171,149,148,170,172,150</elem>
			<elem id="69">149,171,173,151,150,172,174,152</elem>
			<elem id="70">151,173,175,153,152,174,176,154</elem>
<!-- ... 130 like lines cut -->
		</Elements>
		<Surface name="ZeroDisplacement1">
			<quad4 id="1">3,1,2,4</quad4>
			<quad4 id="2">5,3,4,6</quad4>
			<quad4 id="3">7,5,6,8</quad4>
			<quad4 id="4">9,7,8,10</quad4>
			<quad4 id="5">11,9,10,12</quad4>
			<quad4 id="6">13,11,12,14</quad4>
			<quad4 id="7">15,13,14,16</quad4>
			<quad4 id="8">17,15,16,18</quad4>
			<quad4 id="9">19,17,18,20</quad4>
			<quad4 id="10">21,19,20,22</quad4>
		</Surface>
		<Surface name="Pressure1">
			<quad4 id="1">153,131,132,154</quad4>
			<quad4 id="2">175,153,154,176</quad4>
			<quad4 id="3">197,175,176,198</quad4>
			<quad4 id="4">219,197,198,220</quad4>
			<quad4 id="5">241,219,220,242</quad4>
			<quad4 id="6">263,241,242,264</quad4>
			<quad4 id="7">285,263,264,286</quad4>
			<quad4 id="8">307,285,286,308</quad4>
			<quad4 id="9">329,307,308,330</quad4>
			<quad4 id="10">351,329,330,352</quad4>
			<quad4 id="11">373,351,352,374</quad4>
			<quad4 id="12">395,373,374,396</quad4>
			<quad4 id="13">417,395,396,418</quad4>
			<quad4 id="14">439,417,418,440</quad4>
			<quad4 id="15">461,439,440,462</quad4>
		</Surface>
		<Surface name="ZeroDisplacement2">
			<quad4 id="1">3,25,23,1</quad4>
			<quad4 id="2">5,27,25,3</quad4>
			<quad4 id="3">7,29,27,5</quad4>
			<quad4 id="4">9,31,29,7</quad4>
			<quad4 id="5">11,33,31,9</quad4>
			<quad4 id="6">13,35,33,11</quad4>
			<quad4 id="7">15,37,35,13</quad4>
			<quad4 id="8">17,39,37,15</quad4>
			<quad4 id="9">19,41,39,17</quad4>
			<quad4 id="10">21,43,41,19</quad4>
			<quad4 id="11">25,47,45,23</quad4>
			<quad4 id="12">27,49,47,25</quad4>
			<quad4 id="13">29,51,49,27</quad4>
			<quad4 id="14">31,53,51,29</quad4>
			<quad4 id="15">33,55,53,31</quad4>
			<quad4 id="16">35,57,55,33</quad4>
			<quad4 id="17">37,59,57,35</quad4>
			<quad4 id="18">39,61,59,37</quad4>
			<quad4 id="19">41,63,61,39</quad4>
			<quad4 id="20">43,65,63,41</quad4>
<!-- ... 380 like lines cut -->
		</Surface>
	</Mesh>
	<MeshDomains>
		<SolidDomain name="Part1" mat="Material1"/>
		<SolidDomain name="Part2" mat="Material2"/>
	</MeshDomains>
	<MeshData>
		<ElementData name="E_map" type="const" elem_set="Part2">
			<value>0</value>
		</ElementData>
	</MeshData>
	<Boundary>
		<bc name="ZeroDisplacement1" node_set="@surface:ZeroDisplacement1" type="zero displacement">
			<x_dof>1</x_dof>
			<y_dof>1</y_dof>
			<z_dof>1</z_dof>
		</bc>
		<bc name="ZeroDisplacement2" node_set="@surface:ZeroDisplacement2" type="zero displacement">
			<x_dof>0</x_dof>
			<y_dof>0</y_dof>
			<z_dof>1</z_dof>
		</bc>
	</Boundary>
	<Loads>
		<surface_load name="Pressure1" surface="Pressure1" type="pressure">
			<pressure lc="1">1</pressure>
			<symmetric_stiffness>1</symmetric_stiffness>
			<linear>0</linear>
			<shell_bottom>0</shell_bottom>
		</surface_load>
	</Loads>
	<LoadData>
		<load_controller id="1" name="LC1" type="loadcurve">
			<interpolate>LINEAR</interpolate>
			<extend>CONSTANT</extend>
			<points>
				<pt>0,0</pt>
				<pt>1,1</pt>
			</points>
		</load_controller>
	</LoadData>
	<Output>
		<plotfile type="febio">
			<var type="displacement"/>
			<var type="stress"/>
			<var type="parameter['mech.material[1].solid[1].E']=E"/>
		</plotfile>
	</Output>
</febio_spec>
